Version 4
SHEET 1 1612 880
WIRE 1424 48 1376 48
WIRE 896 64 896 48
WIRE 592 80 512 80
WIRE 656 80 592 80
WIRE 720 80 656 80
WIRE 1232 112 1152 112
WIRE 1328 112 1232 112
WIRE 1424 112 1328 112
WIRE 1504 112 1424 112
WIRE 1504 144 1424 144
WIRE 160 160 112 160
WIRE 512 160 512 144
WIRE 592 160 592 144
WIRE 592 160 512 160
WIRE 656 160 592 160
WIRE 1056 160 992 160
WIRE 400 176 320 176
WIRE 464 176 400 176
WIRE 656 192 656 160
WIRE 800 192 656 192
WIRE 1152 208 1152 176
WIRE 1232 208 1232 192
WIRE 1232 208 1152 208
WIRE 160 256 160 240
WIRE 160 256 128 256
WIRE 400 256 400 240
WIRE 464 256 400 256
WIRE 560 256 464 256
WIRE 1040 256 992 256
WIRE 1232 256 1232 208
WIRE 128 272 128 256
WIRE 160 272 160 256
WIRE 1328 272 1328 192
WIRE 1424 272 1424 224
WIRE 400 336 400 320
WIRE 464 336 400 336
WIRE 560 336 560 256
WIRE 608 336 560 336
WIRE 160 352 112 352
WIRE 320 352 320 176
WIRE 1040 368 1040 256
WIRE 1040 368 960 368
WIRE 800 416 832 368
WIRE 464 432 464 416
WIRE 560 432 560 400
WIRE 624 432 560 432
WIRE 320 448 320 432
WIRE 608 480 576 480
WIRE 720 480 608 480
WIRE 416 496 416 480
WIRE 720 496 720 480
WIRE 880 496 880 480
WIRE 320 560 192 560
WIRE 720 560 608 560
WIRE 784 560 720 560
WIRE 592 592 512 592
WIRE 1088 592 1088 528
WIRE 1088 592 976 592
WIRE 1200 592 1088 592
WIRE 320 624 288 624
WIRE 720 624 640 624
WIRE 784 624 720 624
WIRE 1200 624 1136 624
WIRE 192 672 192 640
WIRE 544 688 512 688
WIRE 1024 688 976 688
WIRE 640 704 608 704
WIRE 720 704 720 688
WIRE 720 704 640 704
WIRE 352 800 256 800
WIRE 544 800 544 688
WIRE 544 800 480 800
WIRE 576 800 544 800
WIRE 816 800 736 800
WIRE 1024 800 1024 688
WIRE 1024 800 944 800
FLAG 128 272 0
FLAG 112 160 3.3
FLAG 112 352 -3.3
FLAG 320 448 0
FLAG 464 432 0
FLAG 576 800 0
FLAG 192 672 0
FLAG 608 336 in1
FLAG 288 624 in1
FLAG 256 800 -3.3
FLAG 416 480 3.3
FLAG 592 592 sw
FLAG 624 432 sw
FLAG 608 704 a1
FLAG 576 480 a1
FLAG 1024 800 0
FLAG 880 480 3.3
FLAG 736 800 -3.3
FLAG 896 48 3.3
FLAG 1040 368 0
FLAG 1056 160 sw
FLAG 800 416 -3.3
FLAG 720 80 a1
FLAG 1136 624 0
FLAG 1232 576 3.3
FLAG 1536 96 3.3
FLAG 1536 160 -3.3
FLAG 1232 640 -3.3
FLAG 1264 608 a1
FLAG 1568 128 ao
FLAG 1232 256 ao
FLAG 1376 48 0
FLAG 1328 272 a1
FLAG 1424 272 ap
FLAG 1088 528 sw
SYMBOL voltage 160 144 R0
WINDOW 123 0 0 Left 0
WINDOW 39 0 0 Left 0
SYMATTR InstName V2
SYMATTR Value 3.3
SYMBOL voltage 160 256 R0
WINDOW 123 0 0 Left 0
WINDOW 39 0 0 Left 0
SYMATTR InstName V1
SYMATTR Value 3.3
SYMBOL voltage 320 336 R0
WINDOW 123 0 0 Left 0
WINDOW 39 0 0 Left 0
WINDOW 0 24 23 Left 2
SYMATTR InstName V3
SYMATTR Value SINE(0 1 1k)
SYMBOL res 448 160 R0
SYMATTR InstName R1
SYMATTR Value 9Meg
SYMBOL cap 384 176 R0
SYMATTR InstName C1
SYMATTR Value 10p
SYMBOL res 448 240 R0
SYMATTR InstName R2
SYMATTR Value 1Meg
SYMBOL res 448 320 R0
SYMATTR InstName R3
SYMATTR Value 75k
SYMBOL cap 384 256 R0
SYMATTR InstName C2
SYMATTR Value 10p
SYMBOL Switches\\ADG633 416 640 R0
SYMATTR InstName U1
SYMBOL res 176 544 R0
SYMATTR InstName R4
SYMATTR Value 75k
SYMBOL cap 544 336 R0
SYMATTR InstName C3
SYMATTR Value 10µ
SYMBOL Switches\\ADG633 880 640 R0
SYMATTR InstName U2
SYMBOL cap 704 496 R0
SYMATTR InstName C4
SYMATTR Value 7p
SYMBOL cap 704 624 R0
SYMATTR InstName C5
SYMATTR Value 33p
SYMBOL res 592 464 R0
SYMATTR InstName R5
SYMATTR Value 1.5Meg
SYMBOL res 624 608 R0
SYMATTR InstName R6
SYMATTR Value 330k
SYMBOL Switches\\ADG633 896 208 R0
SYMATTR InstName U3
SYMBOL res 640 64 R0
SYMATTR InstName R7
SYMATTR Value 18k
SYMBOL cap 576 80 R0
SYMATTR InstName C6
SYMATTR Value 510p
SYMBOL cap 496 80 R0
SYMATTR InstName C7
SYMATTR Value 47p
SYMBOL OpAmps\\OPA2683 1232 608 R0
SYMATTR InstName U4
SYMBOL OpAmps\\OPA2683 1536 128 R0
SYMATTR InstName U5
SYMBOL cap 1408 48 R0
SYMATTR InstName C8
SYMATTR Value 100n
SYMBOL cap 1136 112 R0
SYMATTR InstName C9
SYMATTR Value 33p
SYMBOL res 1312 96 R0
SYMATTR InstName R8
SYMATTR Value 1k
SYMBOL res 1216 96 R0
SYMATTR InstName R9
SYMATTR Value 2k
SYMBOL res 1408 128 R0
SYMATTR InstName R10
SYMATTR Value 1k
TEXT 1160 368 Left 2 !.lib opa2863.lib
TEXT 128 88 Left 2 !.tran 0 0.1s 0 0.001
