Version 4
SHEET 1 1456 880
WIRE 880 -240 816 -240
WIRE 880 -208 816 -208
WIRE 432 -144 384 -144
WIRE 864 -96 784 -96
WIRE 928 -96 864 -96
WIRE 992 -96 928 -96
WIRE 240 -80 160 -80
WIRE 336 -80 240 -80
WIRE 432 -80 336 -80
WIRE 512 -80 432 -80
WIRE 512 -48 432 -48
WIRE 784 -16 784 -32
WIRE 784 -16 768 -16
WIRE 864 -16 864 -32
WIRE 864 -16 784 -16
WIRE 928 -16 864 -16
WIRE 160 16 160 -16
WIRE 240 16 240 0
WIRE 240 16 160 16
WIRE 240 64 240 16
WIRE 896 64 896 48
WIRE 336 80 336 0
WIRE 432 80 432 32
WIRE 1056 160 992 160
WIRE 400 176 320 176
WIRE 464 176 400 176
WIRE 768 192 768 -16
WIRE 800 192 768 192
WIRE 208 224 160 224
WIRE 320 224 320 176
WIRE 400 256 400 240
WIRE 464 256 400 256
WIRE 1040 256 992 256
WIRE 208 320 208 304
WIRE 208 320 176 320
WIRE 320 320 320 304
WIRE 176 336 176 320
WIRE 208 336 208 320
WIRE 400 336 400 320
WIRE 464 336 400 336
WIRE 560 336 464 336
WIRE 608 336 560 336
WIRE 1040 368 1040 256
WIRE 1040 368 960 368
WIRE 208 416 160 416
WIRE 800 416 832 368
WIRE 464 432 464 416
WIRE 560 432 560 400
WIRE 624 432 560 432
WIRE 608 480 576 480
WIRE 720 480 608 480
WIRE 416 496 416 480
WIRE 720 496 720 480
WIRE 880 496 880 480
WIRE 320 560 192 560
WIRE 720 560 608 560
WIRE 784 560 720 560
WIRE 592 592 512 592
WIRE 1024 592 976 592
WIRE 320 624 288 624
WIRE 720 624 640 624
WIRE 784 624 720 624
WIRE 192 672 192 640
WIRE 544 688 512 688
WIRE 1024 688 976 688
WIRE 640 704 608 704
WIRE 720 704 720 688
WIRE 720 704 640 704
WIRE 352 800 256 800
WIRE 544 800 544 688
WIRE 544 800 480 800
WIRE 576 800 544 800
WIRE 816 800 736 800
WIRE 1024 800 1024 688
WIRE 1024 800 944 800
FLAG 176 336 0
FLAG 160 224 3.3
FLAG 160 416 -3.3
FLAG 320 320 0
FLAG 464 432 0
FLAG 576 800 0
FLAG 192 672 0
FLAG 608 336 in1
FLAG 288 624 in1
FLAG 256 800 -3.3
FLAG 416 480 3.3
FLAG 592 592 sw
FLAG 624 432 sw
FLAG 608 704 a1
FLAG 576 480 a1
FLAG 1024 592 sw
FLAG 1024 800 0
FLAG 880 480 3.3
FLAG 736 800 -3.3
FLAG 896 48 3.3
FLAG 1040 368 0
FLAG 1056 160 sw
FLAG 800 416 -3.3
FLAG 992 -96 a1
FLAG 816 -240 sw
FLAG 816 -208 0
FLAG 912 -256 3.3
FLAG 544 -96 3.3
FLAG 544 -32 -3.3
FLAG 912 -192 -3.3
FLAG 944 -224 a1
FLAG 576 -64 ao
FLAG 240 64 ao
FLAG 384 -144 0
FLAG 336 80 a1
FLAG 432 80 ap
SYMBOL voltage 208 208 R0
WINDOW 123 0 0 Left 0
WINDOW 39 0 0 Left 0
SYMATTR InstName V2
SYMATTR Value 3.3
SYMBOL voltage 208 320 R0
WINDOW 123 0 0 Left 0
WINDOW 39 0 0 Left 0
SYMATTR InstName V1
SYMATTR Value 3.3
SYMBOL voltage 320 208 R0
WINDOW 123 0 0 Left 0
WINDOW 39 0 0 Left 0
SYMATTR InstName V3
SYMATTR Value 1
SYMBOL res 448 160 R0
SYMATTR InstName R1
SYMATTR Value 9Meg
SYMBOL cap 384 176 R0
SYMATTR InstName C1
SYMATTR Value 10p
SYMBOL res 448 240 R0
SYMATTR InstName R2
SYMATTR Value 1Meg
SYMBOL res 448 320 R0
SYMATTR InstName R3
SYMATTR Value 75k
SYMBOL cap 384 256 R0
SYMATTR InstName C2
SYMATTR Value 10p
SYMBOL Switches\\ADG633 416 640 R0
SYMATTR InstName U1
SYMBOL res 176 544 R0
SYMATTR InstName R4
SYMATTR Value 75k
SYMBOL cap 544 336 R0
SYMATTR InstName C3
SYMATTR Value 10µ
SYMBOL Switches\\ADG633 880 640 R0
SYMATTR InstName U2
SYMBOL cap 704 496 R0
SYMATTR InstName C4
SYMATTR Value 7p
SYMBOL cap 704 624 R0
SYMATTR InstName C5
SYMATTR Value 33p
SYMBOL res 592 464 R0
SYMATTR InstName R5
SYMATTR Value 1.5Meg
SYMBOL res 624 608 R0
SYMATTR InstName R6
SYMATTR Value 330k
SYMBOL Switches\\ADG633 896 208 R0
SYMATTR InstName U3
SYMBOL res 912 -112 R0
SYMATTR InstName R7
SYMATTR Value 18k
SYMBOL cap 848 -96 R0
SYMATTR InstName C6
SYMATTR Value 510p
SYMBOL cap 768 -96 R0
SYMATTR InstName C7
SYMATTR Value 47p
SYMBOL OpAmps\\OPA2683 912 -224 R0
SYMATTR InstName U4
SYMBOL OpAmps\\OPA2683 544 -64 R0
SYMATTR InstName U5
SYMBOL cap 416 -144 R0
SYMATTR InstName C8
SYMATTR Value 100n
SYMBOL cap 144 -80 R0
SYMATTR InstName C9
SYMATTR Value 33p
SYMBOL res 320 -96 R0
SYMATTR InstName R8
SYMATTR Value 1k
SYMBOL res 224 -96 R0
SYMATTR InstName R9
SYMATTR Value 2k
SYMBOL res 416 -64 R0
SYMATTR InstName R10
SYMATTR Value 1k
TEXT 96 864 Left 2 !.tran 0 1s 0 .01
TEXT 152 128 Left 2 !.lib opa2863.lib
